LAMMPS (12 Dec 2018)
# 3d Lennard-Jones melt

#initialise the crystal at high temperature
#log    log.lammps           #define the output logfile
variable        x index 1
variable        y index 1
variable        z index 1

variable        xx equal 5*$x   # boxlx
variable        xx equal 5*1
variable        yy equal 5*$y   # boxly
variable        yy equal 5*1
variable        zz equal 5*$z	 # boxlz
variable        zz equal 5*1

units           lj
atom_style      atomic
dimension       3

lattice       fcc   1.2           #density input (N = Nc*(boxlx*boxly(boxlz)) Nc=4 for fcc toal N =500
Lattice spacing in x,y,z = 1.4938 1.4938 1.4938
region         box block 0 5 0 5 0 5
create_box      2 box
Created orthogonal box = (0 0 0) to (7.46901 7.46901 7.46901)
create_atoms    1 box
Created 500 atoms
  Time spent = 0.000422243 secs

mass             1 1
mass             2 1

set   group all type/fraction 2 0.2013  107       #setting two types of particles for binary mixture, define fraction
  109 settings made for type/fraction
group     solvent type 1
391 atoms in group solvent

velocity      all create 8.00 87287 mom yes rot yes dist  gaussian  # 8.00 in the temperature

#potential input
pair_style lj/cut 2.5   # potential type cutoff
pair_modify shift yes
pair_coeff 1 1 1.0 1.0 2.5  #AA
pair_coeff 1 2 1.5 0.8 2.0  #AB
pair_coeff 2 2 0.5 0.88 2.2 #BB

neighbor    0.3 bin
neigh_modify      delay 0 every 5 check no

fix         1 all nvt temp 8.00 8.00 0.1      #NVT simulation 8.00 is the temperature

#saving the data in log file
thermo_style    custom step temp press pe ke etotal vol enthalpy        # For printing in log file

thermo          10        # log file dump step
thermo_modify   flush yes

dump          2 all custom 10 pos_vel.xyz id type xu yu zu fx fy fz vx vy vz #dumping positions
dump_modify   2 sort 2             #sorting by particle type(typeA/B in my case); use sort 1 if want to sort by particle id

write_data      1_xyz_files.data
  update every 5 steps, delay 0 steps, check no

#dump           3 all custom 10 vel.xyz id type vx vy vz #dumping velocities
#dump_modify    3 sort 2

restart    1000 restart1.dat restart_8.00.dat      #binary file used for next simulation
timestep         0.001                    #timestep
run            1000                     #run length
Step Temp Press PotEng KinEng TotEng Volume Enthalpy
0            8    12.538831   -6.4149238       11.976    5.5610762    416.66667    16.010102
Averages over the last 51 of 101 rows, steps 500 to 1000:
Temp Press PotEng KinEng TotEng Volume Enthalpy
8.04329 55.5333 0.490707 12.0408 12.5315 416.667 58.8092
Loop time of 0.578956 on 1 procs for 1000 steps with 500 atoms

#================================================
